*SPEF "IEEE 1481-1999"
*DESIGN "montgomery"
*DATE "Sun May  8 17:05:34 2022"
*VENDOR "SYNOPSYS INC"
*PROGRAM "Synopsys Design Compiler cmos"
*VERSION "M-2016.12-SP3"
*DESIGN_FLOW "SYNTHESIS"
*DIVIDER /
*DELIMITER :
*BUS_DELIMITER []
*T_UNIT 1.0 NS
*C_UNIT 1.0 PF
*R_UNIT 1.0 KOHM
*L_UNIT 1.0 HENRY

*PORTS

A\[4\] I *L 0.000e+00 *S 0.000e+00 0.000e+00 
A\[3\] I *L 0.000e+00 *S 0.000e+00 0.000e+00 
A\[2\] I *L 0.000e+00 *S 0.000e+00 0.000e+00 
A\[1\] I *L 0.000e+00 *S 0.000e+00 0.000e+00 
A\[0\] I *L 0.000e+00 *S 0.000e+00 0.000e+00 
B\[4\] I *L 0.000e+00 *S 0.000e+00 0.000e+00 
B\[3\] I *L 0.000e+00 *S 0.000e+00 0.000e+00 
B\[2\] I *L 0.000e+00 *S 0.000e+00 0.000e+00 
B\[1\] I *L 0.000e+00 *S 0.000e+00 0.000e+00 
B\[0\] I *L 0.000e+00 *S 0.000e+00 0.000e+00 
Z\[4\] O *L 9.269e-03 *S 6.782e-02 5.674e-02 
Z\[3\] O *L 9.269e-03 *S 6.782e-02 5.674e-02 
Z\[2\] O *L 9.269e-03 *S 6.782e-02 5.674e-02 
Z\[1\] O *L 9.269e-03 *S 6.782e-02 5.674e-02 
Z\[0\] O *L 9.269e-03 *S 6.782e-02 5.674e-02 

*R_NET A\[4\] 3.541e-02
*DRIVER A\[4\]
*CELL NULL
*C2_R1_C1 1.770e-02 1.700e-05 1.770e-02 
*LOADS
*RC mult0/U2:A 2.342e-08
*RC mult0/U5:B 2.507e-08
*RC mult0/U9:A 2.342e-08
*RC mult0/U15:B 2.507e-08
*RC mult0/U21:A 2.342e-08
*END

*R_NET A\[3\] 3.700e-02
*DRIVER A\[3\]
*CELL NULL
*C2_R1_C1 1.850e-02 1.700e-05 1.850e-02 
*LOADS
*RC mult0/U4:A 2.531e-08
*RC mult0/U8:A 2.531e-08
*RC mult0/U14:B 2.507e-08
*RC mult0/U20:B 2.507e-08
*RC mult0/U26:B 2.507e-08
*END

*R_NET A\[2\] 3.652e-02
*DRIVER A\[2\]
*CELL NULL
*C2_R1_C1 1.826e-02 1.700e-05 1.826e-02 
*LOADS
*RC mult0/U7:A 2.531e-08
*RC mult0/U12:A 2.531e-08
*RC mult0/U18:B 2.507e-08
*RC mult0/U24:B 2.507e-08
*RC mult0/U31:A 2.342e-08
*END

*R_NET A\[1\] 3.070e-02
*DRIVER A\[1\]
*CELL NULL
*C2_R1_C1 1.535e-02 1.417e-05 1.535e-02 
*LOADS
*RC mult0/U11:A 2.725e-08
*RC mult0/U27:A 2.725e-08
*RC mult0/U30:A 2.725e-08
*RC mult0/U34:B 2.700e-08
*END

*R_NET A\[0\] 3.675e-02
*DRIVER A\[0\]
*CELL NULL
*C2_R1_C1 1.837e-02 1.700e-05 1.837e-02 
*LOADS
*RC mult0/U17:A 2.531e-08
*RC mult0/U23:A 2.531e-08
*RC mult0/U29:A 2.531e-08
*RC mult0/U33:A 2.531e-08
*RC mult0/U35:B 2.372e-08
*END

*R_NET B\[4\] 3.647e-02
*DRIVER B\[4\]
*CELL NULL
*C2_R1_C1 1.823e-02 1.700e-05 1.823e-02 
*LOADS
*RC mult0/U2:B 2.372e-08
*RC mult0/U4:B 2.507e-08
*RC mult0/U7:B 2.507e-08
*RC mult0/U11:B 2.507e-08
*RC mult0/U17:B 2.507e-08
*END

*R_NET B\[3\] 3.056e-02
*DRIVER B\[3\]
*CELL NULL
*C2_R1_C1 1.528e-02 1.417e-05 1.528e-02 
*LOADS
*RC mult0/U5:A 2.725e-08
*RC mult0/U8:B 2.700e-08
*RC mult0/U12:B 2.700e-08
*RC mult0/U23:B 2.700e-08
*END

*R_NET B\[2\] 3.661e-02
*DRIVER B\[2\]
*CELL NULL
*C2_R1_C1 1.830e-02 1.700e-05 1.830e-02 
*LOADS
*RC mult0/U9:B 2.372e-08
*RC mult0/U14:A 2.531e-08
*RC mult0/U18:A 2.531e-08
*RC mult0/U27:B 2.507e-08
*RC mult0/U29:B 2.507e-08
*END

*R_NET B\[1\] 3.707e-02
*DRIVER B\[1\]
*CELL NULL
*C2_R1_C1 1.854e-02 1.700e-05 1.854e-02 
*LOADS
*RC mult0/U15:A 2.531e-08
*RC mult0/U20:A 2.531e-08
*RC mult0/U24:A 2.531e-08
*RC mult0/U30:B 2.507e-08
*RC mult0/U33:B 2.507e-08
*END

*R_NET B\[0\] 3.572e-02
*DRIVER B\[0\]
*CELL NULL
*C2_R1_C1 1.786e-02 1.700e-05 1.786e-02 
*LOADS
*RC mult0/U21:B 2.372e-08
*RC mult0/U26:A 2.531e-08
*RC mult0/U31:B 2.372e-08
*RC mult0/U34:A 2.531e-08
*RC mult0/U35:A 2.342e-08
*END

*R_NET Z\[4\] 1.427e-02
*DRIVER U7:Y
*CELL XOR2X0P5A12TR
*C2_R1_C1 7.134e-03 2.833e-06 7.134e-03 
*LOADS
*RC Z\[4\] 4.043e-08
*END

*R_NET Z\[3\] 1.427e-02
*DRIVER U8:Y
*CELL XOR2X0P5A12TR
*C2_R1_C1 7.134e-03 2.833e-06 7.134e-03 
*LOADS
*RC Z\[3\] 4.043e-08
*END

*R_NET Z\[2\] 1.427e-02
*DRIVER U9:Y
*CELL XOR2X0P5A12TR
*C2_R1_C1 7.134e-03 2.833e-06 7.134e-03 
*LOADS
*RC Z\[2\] 4.043e-08
*END

*R_NET Z\[1\] 1.427e-02
*DRIVER U10:Y
*CELL XOR2X0P5A12TR
*C2_R1_C1 7.134e-03 2.833e-06 7.134e-03 
*LOADS
*RC Z\[1\] 4.043e-08
*END

*R_NET Z\[0\] 1.427e-02
*DRIVER U11:Y
*CELL XOR2X0P5A12TR
*C2_R1_C1 7.134e-03 2.833e-06 7.134e-03 
*LOADS
*RC Z\[0\] 4.043e-08
*END

*R_NET q1\[3\] 3.292e-02
*DRIVER mult0/U2:Y
*CELL AND2X0P5A12TR
*C2_R1_C1 1.646e-02 1.700e-05 1.646e-02 
*LOADS
*RC mult2/U2:B 1.395e-07
*RC mult1/U3:B 1.403e-07
*END

*R_NET q1\[2\] 1.641e-02
*DRIVER mult0/U3:Y
*CELL XOR2X0P5A12TR
*C2_R1_C1 8.206e-03 8.500e-06 8.206e-03 
*LOADS
*RC mult1/U1:B 1.395e-07
*END

*R_NET q1\[1\] 1.641e-02
*DRIVER mult0/U6:Y
*CELL XOR3X0P5A12TR
*C2_R1_C1 8.206e-03 8.500e-06 8.206e-03 
*LOADS
*RC mult1/U2:B 1.395e-07
*END

*R_NET q1\[0\] 1.620e-02
*DRIVER mult0/U10:Y
*CELL XOR3X0P5A12TR
*C2_R1_C1 8.101e-03 8.500e-06 8.101e-03 
*LOADS
*RC mult1/U3:C 1.377e-07
*END

*R_NET g1\[4\] 1.141e-02
*DRIVER mult0/U16:Y
*CELL XOR3X0P5A12TR
*C2_R1_C1 5.706e-03 5.667e-06 5.706e-03 
*LOADS
*RC U7:B 6.467e-08
*END

*R_NET g1\[3\] 1.141e-02
*DRIVER mult0/U22:Y
*CELL XOR3X0P5A12TR
*C2_R1_C1 5.706e-03 5.667e-06 5.706e-03 
*LOADS
*RC U8:B 6.467e-08
*END

*R_NET g1\[2\] 1.141e-02
*DRIVER mult0/U28:Y
*CELL XOR3X0P5A12TR
*C2_R1_C1 5.706e-03 5.667e-06 5.706e-03 
*LOADS
*RC U9:B 6.467e-08
*END

*R_NET g1\[1\] 1.141e-02
*DRIVER mult0/U32:Y
*CELL XOR2X0P5A12TR
*C2_R1_C1 5.706e-03 5.667e-06 5.706e-03 
*LOADS
*RC U10:B 6.467e-08
*END

*R_NET g1\[0\] 1.141e-02
*DRIVER mult0/U35:Y
*CELL AND2X0P5A12TR
*C2_R1_C1 5.706e-03 5.667e-06 5.706e-03 
*LOADS
*RC U11:B 6.467e-08
*END

*R_NET g2\[4\] 1.244e-02
*DRIVER mult2/U1:Y
*CELL XOR2X0P5A12TR
*C2_R1_C1 6.219e-03 5.667e-06 6.219e-03 
*LOADS
*RC U7:A 7.049e-08
*END

*R_NET g2\[3\] 1.244e-02
*DRIVER mult2/U2:Y
*CELL XOR2X0P5A12TR
*C2_R1_C1 6.219e-03 5.667e-06 6.219e-03 
*LOADS
*RC U8:A 7.049e-08
*END

*R_NET g2\[2\] 1.244e-02
*DRIVER mult2/U3:Y
*CELL XOR2X0P5A12TR
*C2_R1_C1 6.219e-03 5.667e-06 6.219e-03 
*LOADS
*RC U9:A 7.049e-08
*END

*R_NET g2\[1\] 2.988e-02
*DRIVER mult1/U2:Y
*CELL XOR2X0P5A12TR
*C2_R1_C1 1.494e-02 1.417e-05 1.494e-02 
*LOADS
*RC U10:A 1.058e-07
*RC mult2/U2:A 1.058e-07
*END

*R_NET g2\[0\] 2.988e-02
*DRIVER mult1/U3:Y
*CELL XOR3X0P5A12TR
*C2_R1_C1 1.494e-02 1.417e-05 1.494e-02 
*LOADS
*RC U11:A 1.058e-07
*RC mult2/U3:A 1.058e-07
*END

*R_NET mult1_o\[2\] 2.282e-02
*DRIVER mult1/U1:Y
*CELL XOR2X0P5A12TR
*C2_R1_C1 1.141e-02 1.133e-05 1.141e-02 
*LOADS
*RC mult2/U1:B 6.467e-08
*RC mult2/U3:B 6.467e-08
*END

*R_NET mult0/n1 7.439e-03
*DRIVER mult0/U5:Y
*CELL NAND2X0P5A12TR
*C2_R1_C1 3.719e-03 2.833e-06 3.719e-03 
*LOADS
*RC mult0/U3:A 2.108e-08
*END

*R_NET mult0/n2 6.412e-03
*DRIVER mult0/U4:Y
*CELL NAND2X0P5A12TR
*C2_R1_C1 3.206e-03 2.833e-06 3.206e-03 
*LOADS
*RC mult0/U3:B 1.817e-08
*END

*R_NET mult0/n3 7.151e-03
*DRIVER mult0/U9:Y
*CELL AND2X0P5A12TR
*C2_R1_C1 3.575e-03 2.833e-06 3.575e-03 
*LOADS
*RC mult0/U6:A 2.026e-08
*END

*R_NET mult0/n4 6.510e-03
*DRIVER mult0/U8:Y
*CELL NAND2X0P5A12TR
*C2_R1_C1 3.255e-03 2.833e-06 3.255e-03 
*LOADS
*RC mult0/U6:B 1.844e-08
*END

*R_NET mult0/n5 6.203e-03
*DRIVER mult0/U7:Y
*CELL NAND2X0P5A12TR
*C2_R1_C1 3.101e-03 2.833e-06 3.101e-03 
*LOADS
*RC mult0/U6:C 1.757e-08
*END

*R_NET mult0/n6 7.151e-03
*DRIVER mult0/U13:Y
*CELL XOR2X0P5A12TR
*C2_R1_C1 3.575e-03 2.833e-06 3.575e-03 
*LOADS
*RC mult0/U10:A 2.026e-08
*END

*R_NET mult0/n7 6.510e-03
*DRIVER mult0/U12:Y
*CELL NAND2X0P5A12TR
*C2_R1_C1 3.255e-03 2.833e-06 3.255e-03 
*LOADS
*RC mult0/U10:B 1.844e-08
*END

*R_NET mult0/n8 6.203e-03
*DRIVER mult0/U11:Y
*CELL NAND2X0P5A12TR
*C2_R1_C1 3.101e-03 2.833e-06 3.101e-03 
*LOADS
*RC mult0/U10:C 1.757e-08
*END

*R_NET mult0/n9 7.439e-03
*DRIVER mult0/U15:Y
*CELL NAND2X0P5A12TR
*C2_R1_C1 3.719e-03 2.833e-06 3.719e-03 
*LOADS
*RC mult0/U13:A 2.108e-08
*END

*R_NET mult0/n10 6.412e-03
*DRIVER mult0/U14:Y
*CELL NAND2X0P5A12TR
*C2_R1_C1 3.206e-03 2.833e-06 3.206e-03 
*LOADS
*RC mult0/U13:B 1.817e-08
*END

*R_NET mult0/n11 7.151e-03
*DRIVER mult0/U19:Y
*CELL XOR3X0P5A12TR
*C2_R1_C1 3.575e-03 2.833e-06 3.575e-03 
*LOADS
*RC mult0/U16:A 2.026e-08
*END

*R_NET mult0/n12 6.510e-03
*DRIVER mult0/U18:Y
*CELL NAND2X0P5A12TR
*C2_R1_C1 3.255e-03 2.833e-06 3.255e-03 
*LOADS
*RC mult0/U16:B 1.844e-08
*END

*R_NET mult0/n13 6.203e-03
*DRIVER mult0/U17:Y
*CELL NAND2X0P5A12TR
*C2_R1_C1 3.101e-03 2.833e-06 3.101e-03 
*LOADS
*RC mult0/U16:C 1.757e-08
*END

*R_NET mult0/n14 7.151e-03
*DRIVER mult0/U21:Y
*CELL AND2X0P5A12TR
*C2_R1_C1 3.575e-03 2.833e-06 3.575e-03 
*LOADS
*RC mult0/U19:A 2.026e-08
*END

*R_NET mult0/n15 1.395e-02
*DRIVER mult0/U27:Y
*CELL NAND2X0P5A12TR
*C2_R1_C1 6.974e-03 5.667e-06 6.974e-03 
*LOADS
*RC mult0/U25:A 2.108e-08
*RC mult0/U19:B 1.844e-08
*END

*R_NET mult0/n16 6.203e-03
*DRIVER mult0/U20:Y
*CELL NAND2X0P5A12TR
*C2_R1_C1 3.101e-03 2.833e-06 3.101e-03 
*LOADS
*RC mult0/U19:C 1.757e-08
*END

*R_NET mult0/n17 7.151e-03
*DRIVER mult0/U25:Y
*CELL XOR2X0P5A12TR
*C2_R1_C1 3.575e-03 2.833e-06 3.575e-03 
*LOADS
*RC mult0/U22:A 2.026e-08
*END

*R_NET mult0/n18 6.510e-03
*DRIVER mult0/U24:Y
*CELL NAND2X0P5A12TR
*C2_R1_C1 3.255e-03 2.833e-06 3.255e-03 
*LOADS
*RC mult0/U22:B 1.844e-08
*END

*R_NET mult0/n19 6.203e-03
*DRIVER mult0/U23:Y
*CELL NAND2X0P5A12TR
*C2_R1_C1 3.101e-03 2.833e-06 3.101e-03 
*LOADS
*RC mult0/U22:C 1.757e-08
*END

*R_NET mult0/n20 6.412e-03
*DRIVER mult0/U26:Y
*CELL NAND2X0P5A12TR
*C2_R1_C1 3.206e-03 2.833e-06 3.206e-03 
*LOADS
*RC mult0/U25:B 1.817e-08
*END

*R_NET mult0/n21 7.151e-03
*DRIVER mult0/U31:Y
*CELL AND2X0P5A12TR
*C2_R1_C1 3.575e-03 2.833e-06 3.575e-03 
*LOADS
*RC mult0/U28:A 2.026e-08
*END

*R_NET mult0/n22 6.510e-03
*DRIVER mult0/U30:Y
*CELL NAND2X0P5A12TR
*C2_R1_C1 3.255e-03 2.833e-06 3.255e-03 
*LOADS
*RC mult0/U28:B 1.844e-08
*END

*R_NET mult0/n23 6.203e-03
*DRIVER mult0/U29:Y
*CELL NAND2X0P5A12TR
*C2_R1_C1 3.101e-03 2.833e-06 3.101e-03 
*LOADS
*RC mult0/U28:C 1.757e-08
*END

*R_NET mult0/n24 7.439e-03
*DRIVER mult0/U34:Y
*CELL NAND2X0P5A12TR
*C2_R1_C1 3.719e-03 2.833e-06 3.719e-03 
*LOADS
*RC mult0/U32:A 2.108e-08
*END

*R_NET mult0/n25 6.412e-03
*DRIVER mult0/U33:Y
*CELL NAND2X0P5A12TR
*C2_R1_C1 3.206e-03 2.833e-06 3.206e-03 
*LOADS
*RC mult0/U32:B 1.817e-08
*END
