*SPEF "IEEE 1481-1999"
*DESIGN "nb_mult"
*DATE "Sun May  8 19:54:09 2022"
*VENDOR "SYNOPSYS INC"
*PROGRAM "Synopsys Design Compiler cmos"
*VERSION "M-2016.12-SP3"
*DESIGN_FLOW "SYNTHESIS"
*DIVIDER /
*DELIMITER :
*BUS_DELIMITER []
*T_UNIT 1.0 NS
*C_UNIT 1.0 PF
*R_UNIT 1.0 KOHM
*L_UNIT 1.0 HENRY

*PORTS

clk I *L 0.000e+00 *S 0.000e+00 0.000e+00 
en I *L 0.000e+00 *S 0.000e+00 0.000e+00 
A\[4\] I *L 0.000e+00 *S 0.000e+00 0.000e+00 
A\[3\] I *L 0.000e+00 *S 0.000e+00 0.000e+00 
A\[2\] I *L 0.000e+00 *S 0.000e+00 0.000e+00 
A\[1\] I *L 0.000e+00 *S 0.000e+00 0.000e+00 
A\[0\] I *L 0.000e+00 *S 0.000e+00 0.000e+00 
B\[4\] I *L 0.000e+00 *S 0.000e+00 0.000e+00 
B\[3\] I *L 0.000e+00 *S 0.000e+00 0.000e+00 
B\[2\] I *L 0.000e+00 *S 0.000e+00 0.000e+00 
B\[1\] I *L 0.000e+00 *S 0.000e+00 0.000e+00 
B\[0\] I *L 0.000e+00 *S 0.000e+00 0.000e+00 
Z\[4\] O *L 9.269e-03 *S 4.145e-02 3.577e-02 
Z\[3\] O *L 9.269e-03 *S 4.069e-02 3.517e-02 
Z\[2\] O *L 9.269e-03 *S 4.145e-02 3.577e-02 
Z\[1\] O *L 9.269e-03 *S 3.048e-02 2.722e-02 
Z\[0\] O *L 9.269e-03 *S 3.048e-02 2.722e-02 

*R_NET clk 5.461e-02
*DRIVER clk
*CELL NULL
*C2_R1_C1 2.731e-02 2.550e-05 2.731e-02 
*LOADS
*RC clk_gate_z_reg/main_gate:B 2.919e-08
*RC clk_gate_z_reg/latch:G 2.912e-08
*RC clock_r_REG0_S1:CK 2.678e-08
*RC clock_r_REG2_S1:CK 2.678e-08
*RC clock_r_REG1_S1:CK 2.667e-08
*RC clock_r_REG3_S1:CK 2.667e-08
*RC clk_gate_a_reg/latch:CK 3.373e-08
*END

*R_NET en 2.373e-02
*DRIVER en
*CELL NULL
*C2_R1_C1 1.186e-02 8.500e-06 1.186e-02 
*LOADS
*RC U117:B 1.820e-08
*RC U10:B 2.452e-08
*RC U9:B 2.452e-08
*END

*R_NET A\[4\] 5.989e-03
*DRIVER A\[4\]
*CELL NULL
*C2_R1_C1 2.994e-03 2.833e-06 2.994e-03 
*LOADS
*RC U128:B0 1.697e-08
*END

*R_NET A\[3\] 5.989e-03
*DRIVER A\[3\]
*CELL NULL
*C2_R1_C1 2.994e-03 2.833e-06 2.994e-03 
*LOADS
*RC U127:B0 1.697e-08
*END

*R_NET A\[2\] 5.989e-03
*DRIVER A\[2\]
*CELL NULL
*C2_R1_C1 2.994e-03 2.833e-06 2.994e-03 
*LOADS
*RC U126:B0 1.697e-08
*END

*R_NET A\[1\] 5.989e-03
*DRIVER A\[1\]
*CELL NULL
*C2_R1_C1 2.994e-03 2.833e-06 2.994e-03 
*LOADS
*RC U125:B0 1.697e-08
*END

*R_NET A\[0\] 5.989e-03
*DRIVER A\[0\]
*CELL NULL
*C2_R1_C1 2.994e-03 2.833e-06 2.994e-03 
*LOADS
*RC U124:B0 1.697e-08
*END

*R_NET B\[4\] 5.989e-03
*DRIVER B\[4\]
*CELL NULL
*C2_R1_C1 2.994e-03 2.833e-06 2.994e-03 
*LOADS
*RC U123:B0 1.697e-08
*END

*R_NET B\[3\] 5.989e-03
*DRIVER B\[3\]
*CELL NULL
*C2_R1_C1 2.994e-03 2.833e-06 2.994e-03 
*LOADS
*RC U122:B0 1.697e-08
*END

*R_NET B\[2\] 5.989e-03
*DRIVER B\[2\]
*CELL NULL
*C2_R1_C1 2.994e-03 2.833e-06 2.994e-03 
*LOADS
*RC U121:B0 1.697e-08
*END

*R_NET B\[1\] 5.989e-03
*DRIVER B\[1\]
*CELL NULL
*C2_R1_C1 2.994e-03 2.833e-06 2.994e-03 
*LOADS
*RC U120:B0 1.697e-08
*END

*R_NET B\[0\] 5.989e-03
*DRIVER B\[0\]
*CELL NULL
*C2_R1_C1 2.994e-03 2.833e-06 2.994e-03 
*LOADS
*RC U119:B0 1.697e-08
*END

*R_NET Z\[4\] 2.789e-02
*DRIVER z_reg_4_0:Q
*CELL DFFNQX1A12TR
*C2_R1_C1 1.395e-02 8.500e-06 1.395e-02 
*LOADS
*RC Z\[4\] 7.127e-08
*RC nb/U2:A 4.727e-08
*END

*R_NET Z\[3\] 2.736e-02
*DRIVER z_reg_3_0:Q
*CELL DFFNQX1A12TR
*C2_R1_C1 1.368e-02 8.500e-06 1.368e-02 
*LOADS
*RC Z\[3\] 7.127e-08
*RC nb/U8:A 4.502e-08
*END

*R_NET Z\[2\] 2.789e-02
*DRIVER z_reg_2_0:Q
*CELL DFFNQX1A12TR
*C2_R1_C1 1.395e-02 8.500e-06 1.395e-02 
*LOADS
*RC Z\[2\] 7.127e-08
*RC nb/U1:A 4.727e-08
*END

*R_NET Z\[1\] 2.033e-02
*DRIVER z_reg_1_0:Q
*CELL DFFNQX1A12TR
*C2_R1_C1 1.016e-02 5.667e-06 1.016e-02 
*LOADS
*RC U112:A 1.717e-08
*RC Z\[1\] 4.043e-08
*END

*R_NET Z\[0\] 2.033e-02
*DRIVER z_reg_0_0:Q
*CELL DFFNQX1A12TR
*C2_R1_C1 1.016e-02 5.667e-06 1.016e-02 
*LOADS
*RC U113:A 1.717e-08
*RC Z\[0\] 4.043e-08
*END

*R_NET a0\[4\] 6.631e-03
*DRIVER U128:Y
*CELL AO22X0P5A12TR
*C2_R1_C1 3.315e-03 2.833e-06 3.315e-03 
*LOADS
*RC clock_r_REG13_S2:D 1.879e-08
*END

*R_NET a0\[3\] 6.171e-03
*DRIVER U127:Y
*CELL AO22X0P5A12TR
*C2_R1_C1 3.085e-03 2.833e-06 3.085e-03 
*LOADS
*RC clock_r_REG12_S2:D 1.748e-08
*END

*R_NET a0\[2\] 6.171e-03
*DRIVER U126:Y
*CELL AO22X0P5A12TR
*C2_R1_C1 3.085e-03 2.833e-06 3.085e-03 
*LOADS
*RC clock_r_REG11_S2:D 1.748e-08
*END

*R_NET a0\[1\] 6.171e-03
*DRIVER U125:Y
*CELL AO22X0P5A12TR
*C2_R1_C1 3.085e-03 2.833e-06 3.085e-03 
*LOADS
*RC clock_r_REG10_S2:D 1.748e-08
*END

*R_NET a0\[0\] 6.171e-03
*DRIVER U124:Y
*CELL AO22X0P5A12TR
*C2_R1_C1 3.085e-03 2.833e-06 3.085e-03 
*LOADS
*RC clock_r_REG9_S2:D 1.748e-08
*END

*R_NET b0\[4\] 6.631e-03
*DRIVER U123:Y
*CELL AO22X0P5A12TR
*C2_R1_C1 3.315e-03 2.833e-06 3.315e-03 
*LOADS
*RC clock_r_REG8_S2:D 1.879e-08
*END

*R_NET b0\[3\] 6.171e-03
*DRIVER U122:Y
*CELL AO22X0P5A12TR
*C2_R1_C1 3.085e-03 2.833e-06 3.085e-03 
*LOADS
*RC clock_r_REG7_S2:D 1.748e-08
*END

*R_NET b0\[2\] 6.171e-03
*DRIVER U121:Y
*CELL AO22X0P5A12TR
*C2_R1_C1 3.085e-03 2.833e-06 3.085e-03 
*LOADS
*RC clock_r_REG6_S2:D 1.748e-08
*END

*R_NET b0\[1\] 6.171e-03
*DRIVER U120:Y
*CELL AO22X0P5A12TR
*C2_R1_C1 3.085e-03 2.833e-06 3.085e-03 
*LOADS
*RC clock_r_REG5_S2:D 1.748e-08
*END

*R_NET b0\[0\] 6.171e-03
*DRIVER U119:Y
*CELL AO22X0P5A12TR
*C2_R1_C1 3.085e-03 2.833e-06 3.085e-03 
*LOADS
*RC clock_r_REG4_S2:D 1.748e-08
*END

*R_NET r0 1.174e-02
*DRIVER nb/U2:Y
*CELL XOR3X1P4A12TR
*C2_R1_C1 5.869e-03 5.667e-06 5.869e-03 
*LOADS
*RC U107:A 6.652e-08
*END

*R_NET r3 1.136e-02
*DRIVER nb/U1:Y
*CELL XOR3X1P4A12TR
*C2_R1_C1 5.679e-03 5.667e-06 5.679e-03 
*LOADS
*RC U106:A 6.437e-08
*END

*R_NET r4 1.136e-02
*DRIVER nb/U8:Y
*CELL XNOR2X0P7A12TR
*C2_R1_C1 5.679e-03 5.667e-06 5.679e-03 
*LOADS
*RC U105:A 6.437e-08
*END

*R_NET state\[2\] 1.406e-02
*DRIVER U9:Y
*CELL AND2X3A12TR
*C2_R1_C1 7.031e-03 5.667e-06 7.031e-03 
*LOADS
*RC clock_r_REG0_S1:D 1.879e-08
*RC U115:A 2.106e-08
*END

*R_NET state\[1\] 1.349e-02
*DRIVER U10:Y
*CELL AND2X3A12TR
*C2_R1_C1 6.747e-03 5.667e-06 6.747e-03 
*LOADS
*RC clock_r_REG3_S1:D 1.748e-08
*RC U115:B 2.075e-08
*END

*R_NET state\[0\] 6.631e-03
*DRIVER U117:Y
*CELL AND2X1A12TR
*C2_R1_C1 3.315e-03 2.833e-06 3.315e-03 
*LOADS
*RC clock_r_REG2_S1:D 1.879e-08
*END

*R_NET next_state\[2\] 8.489e-03
*DRIVER next_state_reg_2_0:Q
*CELL LATQX1A12TR
*C2_R1_C1 4.244e-03 2.833e-06 4.244e-03 
*LOADS
*RC U9:A 2.405e-08
*END

*R_NET next_state\[1\] 8.489e-03
*DRIVER next_state_reg_1_0:Q
*CELL LATQX1A12TR
*C2_R1_C1 4.244e-03 2.833e-06 4.244e-03 
*LOADS
*RC U10:A 2.405e-08
*END

*R_NET next_state\[0\] 6.359e-03
*DRIVER next_state_reg_0_0:Q
*CELL LATQX1A12TR
*C2_R1_C1 3.179e-03 2.833e-06 3.179e-03 
*LOADS
*RC U117:A 1.802e-08
*END

*R_NET N51 6.685e-03
*DRIVER U109:Y
*CELL NOR2BX0P5A12TR
*C2_R1_C1 3.342e-03 2.833e-06 3.342e-03 
*LOADS
*RC next_state_reg_0_0:D 1.894e-08
*END

*R_NET N52 6.685e-03
*DRIVER U111:Y
*CELL NOR2BX0P5A12TR
*C2_R1_C1 3.342e-03 2.833e-06 3.342e-03 
*LOADS
*RC next_state_reg_1_0:D 1.894e-08
*END

*R_NET N53 6.685e-03
*DRIVER U118:Y
*CELL NOR2X1A12TR
*C2_R1_C1 3.342e-03 2.833e-06 3.342e-03 
*LOADS
*RC next_state_reg_2_0:D 1.894e-08
*END

*R_NET N77 2.603e-02
*DRIVER U115:Y
*CELL NAND2X1A12TR
*C2_R1_C1 1.302e-02 1.133e-05 1.302e-02 
*LOADS
*RC clock_r_REG1_S1:D 1.748e-08
*RC next_state_reg_1_0:G 1.876e-08
*RC next_state_reg_2_0:G 1.876e-08
*RC next_state_reg_0_0:G 1.876e-08
*END

*R_NET N113 6.450e-03
*DRIVER U107:Y
*CELL AND2X1P4A12TR
*C2_R1_C1 3.225e-03 2.833e-06 3.225e-03 
*LOADS
*RC z_reg_0_0:D 1.827e-08
*END

*R_NET N114 6.450e-03
*DRIVER U113:Y
*CELL AND2X0P7A12TR
*C2_R1_C1 3.225e-03 2.833e-06 3.225e-03 
*LOADS
*RC z_reg_1_0:D 1.827e-08
*END

*R_NET N115 6.450e-03
*DRIVER U112:Y
*CELL AND2X0P7A12TR
*C2_R1_C1 3.225e-03 2.833e-06 3.225e-03 
*LOADS
*RC z_reg_2_0:D 1.827e-08
*END

*R_NET N116 6.450e-03
*DRIVER U106:Y
*CELL AND2X1A12TR
*C2_R1_C1 3.225e-03 2.833e-06 3.225e-03 
*LOADS
*RC z_reg_3_0:D 1.827e-08
*END

*R_NET N117 6.450e-03
*DRIVER U105:Y
*CELL AND2X1A12TR
*C2_R1_C1 3.225e-03 2.833e-06 3.225e-03 
*LOADS
*RC z_reg_4_0:D 1.827e-08
*END

*R_NET net17 6.399e-02
*DRIVER clk_gate_a_reg/latch:ECK
*CELL PREICGX0P5BA12TR
*C2_R1_C1 3.200e-02 3.117e-05 3.200e-02 
*LOADS
*RC clock_r_REG8_S2:CK 2.002e-08
*RC clock_r_REG13_S2:CK 2.002e-08
*RC clock_r_REG12_S2:CK 1.992e-08
*RC clock_r_REG11_S2:CK 1.992e-08
*RC clock_r_REG10_S2:CK 1.992e-08
*RC clock_r_REG9_S2:CK 1.992e-08
*RC clock_r_REG7_S2:CK 1.992e-08
*RC clock_r_REG6_S2:CK 1.992e-08
*RC clock_r_REG5_S2:CK 1.992e-08
*RC clock_r_REG4_S2:CK 1.992e-08
*END

*R_NET net34 3.562e-02
*DRIVER clk_gate_z_reg/main_gate:Y
*CELL OR2X1A12TR
*C2_R1_C1 1.781e-02 1.700e-05 1.781e-02 
*LOADS
*RC z_reg_0_0:CKN 2.422e-08
*RC z_reg_4_0:CKN 2.422e-08
*RC z_reg_3_0:CKN 2.422e-08
*RC z_reg_2_0:CKN 2.422e-08
*RC z_reg_1_0:CKN 2.422e-08
*END

*R_NET n8 7.418e-03
*DRIVER U110:Y
*CELL XNOR2X0P5A12TR
*C2_R1_C1 3.709e-03 2.833e-06 3.709e-03 
*LOADS
*RC U118:A 2.102e-08
*END

*R_NET n9 1.322e-02
*DRIVER U108:Y
*CELL XOR2X0P5A12TR
*C2_R1_C1 6.612e-03 5.667e-06 6.612e-03 
*LOADS
*RC U111:AN 1.690e-08
*RC U118:B 2.057e-08
*END

*R_NET n100 1.752e-02
*DRIVER clock_r_REG4_S2:Q
*CELL DFFQX0P5A12TR
*C2_R1_C1 8.758e-03 8.500e-06 8.758e-03 
*LOADS
*RC U120:A0 3.657e-08
*RC nb/U5:B 3.788e-08
*END

*R_NET n101 1.793e-02
*DRIVER clock_r_REG5_S2:Q
*CELL DFFQX0P5A12TR
*C2_R1_C1 8.965e-03 8.500e-06 8.965e-03 
*LOADS
*RC U121:A0 3.657e-08
*RC nb/U9:B 3.964e-08
*END

*R_NET n102 6.104e-03
*DRIVER clock_r_REG6_S2:Q
*CELL DFFQX0P5A12TR
*C2_R1_C1 3.052e-03 2.833e-06 3.052e-03 
*LOADS
*RC U122:A0 1.729e-08
*END

*R_NET n103 6.104e-03
*DRIVER clock_r_REG7_S2:Q
*CELL DFFQX0P5A12TR
*C2_R1_C1 3.052e-03 2.833e-06 3.052e-03 
*LOADS
*RC U123:A0 1.729e-08
*END

*R_NET n104 3.303e-02
*DRIVER clock_r_REG8_S2:Q
*CELL DFFQX1A12TR
*C2_R1_C1 1.652e-02 1.417e-05 1.652e-02 
*LOADS
*RC U119:A0 2.604e-08
*RC nb/U5:A 3.077e-08
*RC nb/U7:A 2.715e-08
*RC nb/U9:A 3.301e-08
*END

*R_NET n105 1.752e-02
*DRIVER clock_r_REG9_S2:Q
*CELL DFFQX0P5A12TR
*C2_R1_C1 8.758e-03 8.500e-06 8.758e-03 
*LOADS
*RC U125:A0 3.657e-08
*RC nb/U6:B 3.788e-08
*END

*R_NET n106 1.793e-02
*DRIVER clock_r_REG10_S2:Q
*CELL DFFQX0P5A12TR
*C2_R1_C1 8.965e-03 8.500e-06 8.965e-03 
*LOADS
*RC U126:A0 3.657e-08
*RC nb/U10:B 3.964e-08
*END

*R_NET n107 6.104e-03
*DRIVER clock_r_REG11_S2:Q
*CELL DFFQX0P5A12TR
*C2_R1_C1 3.052e-03 2.833e-06 3.052e-03 
*LOADS
*RC U127:A0 1.729e-08
*END

*R_NET n108 6.104e-03
*DRIVER clock_r_REG12_S2:Q
*CELL DFFQX0P5A12TR
*C2_R1_C1 3.052e-03 2.833e-06 3.052e-03 
*LOADS
*RC U128:A0 1.729e-08
*END

*R_NET n109 3.292e-02
*DRIVER clock_r_REG13_S2:Q
*CELL DFFQX1A12TR
*C2_R1_C1 1.646e-02 1.417e-05 1.646e-02 
*LOADS
*RC U124:A0 2.604e-08
*RC nb/U6:A 3.077e-08
*RC nb/U7:B 2.677e-08
*RC nb/U10:A 3.301e-08
*END

*R_NET n110 2.867e-02
*DRIVER clock_r_REG1_S1:Q
*CELL DFFQX0P5A12TR
*C2_R1_C1 1.434e-02 1.417e-05 1.434e-02 
*LOADS
*RC clk_gate_z_reg/test_or:A 4.680e-08
*RC U109:AN 4.391e-08
*RC clk_gate_a_reg/latch:E 4.469e-08
*END

*R_NET n111 2.875e-02
*DRIVER clock_r_REG2_S1:Q
*CELL DFFQX1A12TR
*C2_R1_C1 1.437e-02 1.133e-05 1.437e-02 
*LOADS
*RC U104:B 2.047e-08
*RC U108:A 2.108e-08
*RC U109:B 1.846e-08
*RC U110:A 2.144e-08
*END

*R_NET n112 1.364e-02
*DRIVER clock_r_REG3_S1:Q
*CELL DFFQX0P5A12TR
*C2_R1_C1 6.819e-03 5.667e-06 6.819e-03 
*LOADS
*RC U104:C 2.047e-08
*RC U108:B 1.817e-08
*END

*R_NET n1130 2.040e-02
*DRIVER clock_r_REG0_S1:Q
*CELL DFFQX1A12TR
*C2_R1_C1 1.020e-02 8.500e-06 1.020e-02 
*LOADS
*RC U104:A 2.118e-08
*RC U110:B 1.816e-08
*RC U111:B 1.846e-08
*END

*R_NET n1140 6.874e-02
*DRIVER U116:Y
*CELL BUFX2BA12TR
*C2_R1_C1 3.437e-02 3.117e-05 3.437e-02 
*LOADS
*RC U114:A 2.747e-08
*RC U128:B1 1.673e-08
*RC U127:B1 1.673e-08
*RC U126:B1 1.673e-08
*RC U125:B1 1.673e-08
*RC U124:B1 1.673e-08
*RC U123:B1 1.673e-08
*RC U122:B1 1.673e-08
*RC U121:B1 1.673e-08
*RC U120:B1 1.673e-08
*RC U119:B1 1.673e-08
*END

*R_NET n1150 6.838e-03
*DRIVER U104:Y
*CELL NOR3X1A12TR
*C2_R1_C1 3.419e-03 2.833e-06 3.419e-03 
*LOADS
*RC U116:A 1.937e-08
*END

*R_NET n1160 9.267e-02
*DRIVER U114:Y
*CELL INVX2A12TR
*C2_R1_C1 4.633e-02 4.250e-05 4.633e-02 
*LOADS
*RC U105:B 1.820e-08
*RC U106:B 1.820e-08
*RC U107:B 1.920e-08
*RC U113:B 1.743e-08
*RC U112:B 1.743e-08
*RC U128:A1 1.721e-08
*RC U127:A1 1.721e-08
*RC U126:A1 1.721e-08
*RC U125:A1 1.721e-08
*RC U124:A1 1.721e-08
*RC U123:A1 1.721e-08
*RC U122:A1 1.721e-08
*RC U121:A1 1.721e-08
*RC U120:A1 1.721e-08
*RC U119:A1 1.721e-08
*END

*R_NET nb/n1 1.468e-02
*DRIVER nb/U4:Y
*CELL NAND2X1A12TR
*C2_R1_C1 7.342e-03 5.667e-06 7.342e-03 
*LOADS
*RC nb/U1:C 2.222e-08
*RC nb/U8:B 1.939e-08
*END

*R_NET nb/n2 1.490e-02
*DRIVER nb/U3:Y
*CELL NAND2X1A12TR
*C2_R1_C1 7.452e-03 5.667e-06 7.452e-03 
*LOADS
*RC nb/U2:B 2.111e-08
*RC nb/U1:B 2.111e-08
*END

*R_NET nb/n3 7.432e-03
*DRIVER nb/U9:Y
*CELL XOR2X0P7A12TR
*C2_R1_C1 3.716e-03 2.833e-06 3.716e-03 
*LOADS
*RC nb/U4:A 2.106e-08
*END

*R_NET nb/n4 7.323e-03
*DRIVER nb/U10:Y
*CELL XOR2X0P7A12TR
*C2_R1_C1 3.661e-03 2.833e-06 3.661e-03 
*LOADS
*RC nb/U4:B 2.075e-08
*END

*R_NET nb/n5 7.842e-03
*DRIVER nb/U7:Y
*CELL NAND2X0P5MA12TR
*C2_R1_C1 3.921e-03 2.833e-06 3.921e-03 
*LOADS
*RC nb/U2:C 2.222e-08
*END

*R_NET nb/n6 7.432e-03
*DRIVER nb/U5:Y
*CELL XOR2X0P5A12TR
*C2_R1_C1 3.716e-03 2.833e-06 3.716e-03 
*LOADS
*RC nb/U3:A 2.106e-08
*END

*R_NET nb/n7 7.323e-03
*DRIVER nb/U6:Y
*CELL XOR2X0P5A12TR
*C2_R1_C1 3.661e-03 2.833e-06 3.661e-03 
*LOADS
*RC nb/U3:B 2.075e-08
*END

*R_NET clk_gate_z_reg/net24 6.279e-03
*DRIVER clk_gate_z_reg/test_or:Y
*CELL OR2X1A12TR
*C2_R1_C1 3.139e-03 2.833e-06 3.139e-03 
*LOADS
*RC clk_gate_z_reg/latch:D 1.779e-08
*END

*R_NET clk_gate_z_reg/n1 6.578e-03
*DRIVER clk_gate_z_reg/latch:QN
*CELL LATQNX1A12TR
*C2_R1_C1 3.289e-03 2.833e-06 3.289e-03 
*LOADS
*RC clk_gate_z_reg/main_gate:A 1.864e-08
*END
